tests/data/power_flow/pandapower/components/symmetric/three_winding_transformer/sym_output.json
{
  "node": [
    {
      "id": 1,
      "u_pu": 0.9999926174270017,
      "u": 137998.98120492624,
      "u_angle": -9.464347969951874e-06
    },
    {
      "id": 2,
      "u_pu": 1.0010890743570962,
      "u": 69075.14613063964,
      "u_angle": 0.5056858414209032
    },
    {
      "id": 3,
      "u_pu": 1.002126284942395,
      "u": 13829.342732205052,
      "u_angle": 0.529242570801109
    }
  ],
  "sym_load": [
    {
      "id": 41,
      "p": 10000000.0,
      "q": 199999.99999999997
    },
    {
      "id": 42,
      "p": 99999.99999999999,
      "q": 20000.0
    }
  ],
  "three_winding_transformer": [
    {
      "id": 4,
      "loading": 0.20005101987826696,
      "p_1": 10151892.276210727,
      "q_1": 6404105.027856597,
      "i_1": 50.21754907314644,
      "p_2": -10000000.000000067,
      "q_2": -200000.0000000952,
      "i_2": 83.59963895069126,
      "p_3": -99999.99999998213,
      "q_3": -20000.00000002474,
      "i_3": 4.257498488225235
    }
  ]
}